      12
 i =        6, E =       -37.5020871543
  C        -0.0000167242        1.4241047795        0.0000000000
  H         0.0000117730        2.4812054687        0.0000000000
  C        -1.2229203865        0.7083450062        0.0000000000
  H        -2.1515061336        1.2169258310        0.0000000000
  C        -1.2228578464       -0.7083475940        0.0000000000
  H        -2.1514706966       -1.2168780517        0.0000000000
  C         0.0000162811       -1.4241567274        0.0000000000
  H        -0.0000143972       -2.4812584194        0.0000000000
  C         1.2228735927       -0.7083177365        0.0000000000
  H         2.1514569212       -1.2168987582        0.0000000000
  C         1.2229035665        0.7083746665        0.0000000000
  H         2.1515177018        1.2169053411        0.0000000000
