       6
 i =       12, E =       -23.9877697187
  C        -0.0435479100        0.6769040440       -0.0000044633
  O         0.0048786826       -0.8714625537        0.0000589557
  H        -1.0794527472        0.9055802370        0.0000008389
  H         0.9770514937       -1.1299177207       -0.0000003842
  H         0.4213440524        1.0545040817        0.8763085668
  H         0.4213460908        1.0545154729       -0.8763108797
