       6
 i =       14, E =       -23.9878005972
  C        -0.0959049394        0.6754935103        0.0000187920
  O         0.0049689810       -0.8706956921       -0.0000011208
  H        -1.1389299572        0.8693024513       -0.0000900065
  H         0.9855215972       -1.0953599610       -0.0000704011
  H         0.3557037080        1.0684982860        0.8764571752
  H         0.3558201671        1.0685335077       -0.8763559943
